@<TRIPOS>MOLECULE
ac3glyc.xyz	      0.0000000
   29    28     0     0     0
SMALL
NO_CHARGES

@<TRIPOS>ATOM
      1 C1          0.0000    0.0000    0.0000 C.3       1 <0>         0.0000
      2 C2          1.5004    0.0000    0.0000 C.2       1 <0>         0.0000
      3 O1          2.1869    0.9726    0.0000 O.2       1 <0>         0.0000
      4 O2          1.9823   -1.2394    0.0114 O.3       1 <0>         0.0000
      5 C3          3.3800   -1.4578    0.0808 C.3       1 <0>         0.0000
      6 C4          3.8355   -1.6877    1.5166 C.3       1 <0>         0.0000
      7 C5          5.1860   -2.3751    1.5474 C.3       1 <0>         0.0000
      8 O3          5.4805   -2.6678    2.9006 O.3       1 <0>         0.0000
      9 C6          6.6413   -3.2578    3.1617 C.2       1 <0>         0.0000
     10 C7          6.8263   -3.4907    4.6340 C.3       1 <0>         0.0000
     11 O4          7.4218   -3.5564    2.3147 O.2       1 <0>         0.0000
     12 O5          3.9950   -0.4460    2.1867 O.3       1 <0>         0.0000
     13 C8          3.0295    0.0275    2.9671 C.2       1 <0>         0.0000
     14 O6          1.9990   -0.5378    3.1584 O.2       1 <0>         0.0000
     15 C9          3.4045    1.3595    3.5474 C.3       1 <0>         0.0000
     16 H1         -0.3753   -0.6574   -0.7748 H         1 <0>         0.0000
     17 H2         -0.3607    1.0069   -0.1495 H         1 <0>         0.0000
     18 H3         -0.3426   -0.3765    0.9574 H         1 <0>         0.0000
     19 H4          3.5520   -2.3521   -0.5031 H         1 <0>         0.0000
     20 H5          3.9112   -0.6268   -0.3600 H         1 <0>         0.0000
     21 H6          3.1032   -2.2854    2.0397 H         1 <0>         0.0000
     22 H7          5.1553   -3.2966    0.9804 H         1 <0>         0.0000
     23 H8          5.9591   -1.7397    1.1354 H         1 <0>         0.0000
     24 H9          6.8026   -2.5417    5.1572 H         1 <0>         0.0000
     25 H10         6.0123   -4.0975    5.0133 H         1 <0>         0.0000
     26 H11         7.7710   -3.9853    4.8040 H         1 <0>         0.0000
     27 H12         3.4578    2.0830    2.7417 H         1 <0>         0.0000
     28 H13         2.6578    1.6630    4.2662 H         1 <0>         0.0000
     29 H14         4.3803    1.3023    4.0142 H         1 <0>         0.0000
@<TRIPOS>BOND
     1    1   16 1
     2    5   19 1
     3    5   20 1
     4    1   17 1
     5    1    2 1
     6    1   18 1
     7    2    3 2
     8    2    4 1
     9    4    5 1
    10    5    6 1
    11    7   22 1
    12    7   23 1
    13    6    7 1
    14    6   21 1
    15    6   12 1
    16    7    8 1
    17   12   13 1
    18    9   11 2
    19   15   27 1
    20    8    9 1
    21   13   14 2
    22   13   15 1
    23    9   10 1
    24   15   29 1
    25   15   28 1
    26   10   26 1
    27   10   25 1
    28   10   24 1
@<TRIPOS>MOLECULE
bb.xyz	      0.0000000
   15    15     0     0     0
SMALL
NO_CHARGES

@<TRIPOS>ATOM
      1 C1          0.0000    0.0000    0.0000 C.ar      1 <0>         0.0000
      2 C2          1.3900    0.0000    0.0000 C.ar      1 <0>         0.0000
      3 C3          2.0664    1.2144    0.0000 C.ar      1 <0>         0.0000
      4 C4          1.3658    2.4101   -0.0064 C.ar      1 <0>         0.0000
      5 C5         -0.0215    2.4020   -0.0111 C.ar      1 <0>         0.0000
      6 C6         -0.7037    1.1940   -0.0064 C.ar      1 <0>         0.0000
      7 C7          2.1476   -1.2892   -0.0606 C.3       1 <0>         0.0000
      8 Br1         2.5639   -1.9963    1.7317 Br        1 <0>         0.0000
      9 H1         -0.5340   -0.9346    0.0014 H         1 <0>         0.0000
     10 H2          3.1428    1.2261    0.0015 H         1 <0>         0.0000
     11 H3          1.9001    3.3434   -0.0110 H         1 <0>         0.0000
     12 H4         -0.5664    3.3292   -0.0197 H         1 <0>         0.0000
     13 H5         -1.7790    1.1814   -0.0110 H         1 <0>         0.0000
     14 H6          1.5867   -2.0718   -0.5434 H         1 <0>         0.0000
     15 H7          3.1039   -1.1802   -0.5441 H         1 <0>         0.0000
@<TRIPOS>BOND
     1    7   15 1
     2    7   14 1
     3    2    7 1
     4    7    8 1
     5    5   12 1
     6    4    5 ar
     7    5    6 ar
     8    4   11 1
     9    6   13 1
    10    3    4 ar
    11    1    6 ar
    12    1    2 ar
    13    1    9 1
    14    2    3 ar
    15    3   10 1
@<TRIPOS>MOLECULE
bencl.xyz	      0.0000000
   15    15     0     0     0
SMALL
NO_CHARGES

@<TRIPOS>ATOM
      1 C1          0.0000    0.0000    0.0000 C.ar      1 <0>         0.0000
      2 C2          1.3903    0.0000    0.0000 C.ar      1 <0>         0.0000
      3 C3          2.0657    1.2152    0.0000 C.ar      1 <0>         0.0000
      4 C4          1.3641    2.4109   -0.0030 C.ar      1 <0>         0.0000
      5 C5         -0.0230    2.4025   -0.0044 C.ar      1 <0>         0.0000
      6 C6         -0.7043    1.1941   -0.0031 C.ar      1 <0>         0.0000
      7 C7          2.1521   -1.2948    0.0100 C.3       1 <0>         0.0000
      8 Cl1         2.5068   -1.9020   -1.6568 Cl        1 <0>         0.0000
      9 H1         -0.5341   -0.9345   -0.0029 H         1 <0>         0.0000
     10 H2          3.1420    1.2281   -0.0029 H         1 <0>         0.0000
     11 H3          1.8981    3.3445   -0.0028 H         1 <0>         0.0000
     12 H4         -0.5683    3.3294   -0.0053 H         1 <0>         0.0000
     13 H5         -1.7797    1.1809   -0.0029 H         1 <0>         0.0000
     14 H6          3.1108   -1.1890    0.4919 H         1 <0>         0.0000
     15 H7          1.5948   -2.0808    0.4941 H         1 <0>         0.0000
@<TRIPOS>BOND
     1    7    8 1
     2    5   12 1
     3    5    6 ar
     4    4    5 ar
     5    6   13 1
     6    1    6 ar
     7    4   11 1
     8    3    4 ar
     9    1    9 1
    10    3   10 1
    11    1    2 ar
    12    2    3 ar
    13    2    7 1
    14    7   14 1
    15    7   15 1
@<TRIPOS>MOLECULE
cf32ben.xyz	      0.0000000
   18    18     0     0     0
SMALL
NO_CHARGES

@<TRIPOS>ATOM
      1 C1          0.0000    0.0000    0.0000 C.ar      1 <0>         0.0000
      2 C2          1.3920    0.0000    0.0000 C.ar      1 <0>         0.0000
      3 C3          2.0925    1.1897    0.0000 C.ar      1 <0>         0.0000
      4 C4          1.4013    2.3973   -0.0000 C.ar      1 <0>         0.0000
      5 C5          0.0222    2.4049   -0.0000 C.ar      1 <0>         0.0000
      6 C6         -0.6778    1.2007    0.0000 C.ar      1 <0>         0.0000
      7 C7          2.1070   -1.3248   -0.0002 C.3       1 <0>         0.0000
      8 C8         -2.1827    1.2399   -0.0001 C.3       1 <0>         0.0000
      9 F1          1.7878   -2.0521    1.0618 F         1 <0>         0.0000
     10 F2          3.4219   -1.1843    0.0017 F         1 <0>         0.0000
     11 F3          1.7907   -2.0502   -1.0644 F         1 <0>         0.0000
     12 F4         -2.7173    0.0310    0.0004 F         1 <0>         0.0000
     13 F5         -2.6530    1.8791    1.0627 F         1 <0>         0.0000
     14 F6         -2.6529    1.8781   -1.0635 F         1 <0>         0.0000
     15 H1         -0.5399   -0.9277    0.0001 H         1 <0>         0.0000
     16 H2          3.1657    1.1851    0.0000 H         1 <0>         0.0000
     17 H3          1.9446    3.3242    0.0000 H         1 <0>         0.0000
     18 H4         -0.5126    3.3373    0.0000 H         1 <0>         0.0000
@<TRIPOS>BOND
     1    7   11 1
     2    8   14 1
     3    2    7 1
     4    7   10 1
     5    7    9 1
     6    6    8 1
     7    8   12 1
     8    8   13 1
     9    4    5 ar
    10    5    6 ar
    11    5   18 1
    12    3    4 ar
    13    4   17 1
    14    1    2 ar
    15    1    6 ar
    16    1   15 1
    17    2    3 ar
    18    3   16 1
@<TRIPOS>MOLECULE
ch3oph.xyz	      0.0000000
   26    26     0     0     0
SMALL
NO_CHARGES

@<TRIPOS>ATOM
      1 C1          0.0000    0.0000    0.0000 C.ar      1 <0>         0.0000
      2 C2          1.3959    0.0000    0.0000 C.ar      1 <0>         0.0000
      3 C3          2.0831    1.2059    0.0000 C.ar      1 <0>         0.0000
      4 C4          1.3698    2.3997    0.0196 C.ar      1 <0>         0.0000
      5 C5         -0.0137    2.4122    0.0274 C.ar      1 <0>         0.0000
      6 C6         -0.6900    1.1907   -0.0031 C.ar      1 <0>         0.0000
      7 O1          1.9824   -1.2094   -0.0066 O.3       1 <0>         0.0000
      8 C7         -0.8198    3.6745   -0.0550 C.2       1 <0>         0.0000
      9 C8          3.3802   -1.3157   -0.0298 C.3       1 <0>         0.0000
     10 O2         -1.7946    3.7138   -0.7639 O.2       1 <0>         0.0000
     11 N1         -0.3956    4.7732    0.6356 N.am      1 <0>         0.0000
     12 C9         -1.1137    6.0135    0.4025 C.3       1 <0>         0.0000
     13 C10         0.2951    4.7127    1.9119 C.3       1 <0>         0.0000
     14 H1         -0.5150   -0.9426   -0.0115 H         1 <0>         0.0000
     15 H2          3.1550    1.2376   -0.0202 H         1 <0>         0.0000
     16 H3          1.9161    3.3258    0.0088 H         1 <0>         0.0000
     17 H4         -1.7637    1.1896   -0.0360 H         1 <0>         0.0000
     18 H5          3.5993   -2.3729   -0.0351 H         1 <0>         0.0000
     19 H6          3.8242   -0.8624    0.8508 H         1 <0>         0.0000
     20 H7          3.7947   -0.8595   -0.9230 H         1 <0>         0.0000
     21 H8         -1.3758    6.0980   -0.6400 H         1 <0>         0.0000
     22 H9         -0.4711    6.8415    0.6795 H         1 <0>         0.0000
     23 H10        -2.0266    6.0664    0.9919 H         1 <0>         0.0000
     24 H11         0.6050    3.7075    2.1440 H         1 <0>         0.0000
     25 H12         1.1705    5.3549    1.9015 H         1 <0>         0.0000
     26 H13        -0.3650    5.0531    2.7065 H         1 <0>         0.0000
@<TRIPOS>BOND
     1    9   20 1
     2    8   10 2
     3   12   21 1
     4    5    8 1
     5    8   11 am
     6    6   17 1
     7    9   18 1
     8    7    9 1
     9    9   19 1
    10    3   15 1
    11    1   14 1
    12    2    7 1
    13    1    6 ar
    14    5    6 ar
    15    1    2 ar
    16    2    3 ar
    17    3    4 ar
    18    4   16 1
    19    4    5 ar
    20   11   12 1
    21   12   22 1
    22   12   23 1
    23   11   13 1
    24   13   25 1
    25   13   24 1
    26   13   26 1
@<TRIPOS>MOLECULE
ch3ph.xyz	      0.0000000
   25    25     0     0     0
SMALL
NO_CHARGES

@<TRIPOS>ATOM
      1 C1          0.0000    0.0000    0.0000 C.ar      1 <0>         0.0000
      2 C2          1.3932    0.0000    0.0000 C.ar      1 <0>         0.0000
      3 C3          2.0491    1.2256    0.0000 C.ar      1 <0>         0.0000
      4 C4          1.3376    2.4162    0.0231 C.ar      1 <0>         0.0000
      5 C5         -0.0502    2.4075    0.0307 C.ar      1 <0>         0.0000
      6 C6         -0.7133    1.1854    0.0000 C.ar      1 <0>         0.0000
      7 C7         -0.8691    3.6657   -0.0465 C.2       1 <0>         0.0000
      8 O1         -1.8129    3.7149   -0.7951 O.2       1 <0>         0.0000
      9 N1         -0.4888    4.7429    0.6967 N.am      1 <0>         0.0000
     10 C8         -1.2173    5.9813    0.4873 C.3       1 <0>         0.0000
     11 C9          0.1890    4.6528    1.9780 C.3       1 <0>         0.0000
     12 C10         2.1635   -1.2991    0.0104 C.3       1 <0>         0.0000
     13 H1         -0.5320   -0.9358   -0.0145 H         1 <0>         0.0000
     14 H2          3.1247    1.2555   -0.0228 H         1 <0>         0.0000
     15 H3          1.8707    3.3503    0.0140 H         1 <0>         0.0000
     16 H4         -1.7871    1.1724   -0.0350 H         1 <0>         0.0000
     17 H5         -1.4604    6.0943   -0.5570 H         1 <0>         0.0000
     18 H6         -2.1417    6.0047    1.0605 H         1 <0>         0.0000
     19 H7         -0.5909    6.8081    0.8023 H         1 <0>         0.0000
     20 H8          0.5210    3.6477    2.1775 H         1 <0>         0.0000
     21 H9         -0.4878    4.9490    2.7760 H         1 <0>         0.0000
     22 H10         1.0489    5.3152    2.0001 H         1 <0>         0.0000
     23 H11         3.1895   -1.1502   -0.3059 H         1 <0>         0.0000
     24 H12         2.1824   -1.7278    1.0087 H         1 <0>         0.0000
     25 H13         1.7091   -2.0282   -0.6518 H         1 <0>         0.0000
@<TRIPOS>BOND
     1    7    8 2
     2   12   25 1
     3   10   17 1
     4   12   23 1
     5    5    7 1
     6    7    9 am
     7    6   16 1
     8    3   14 1
     9    1   13 1
    10    1    2 ar
    11    1    6 ar
    12    2    3 ar
    13    2   12 1
    14    3    4 ar
    15    5    6 ar
    16   12   24 1
    17    4   15 1
    18    4    5 ar
    19    9   10 1
    20   10   19 1
    21   10   18 1
    22    9   11 1
    23   11   22 1
    24   11   20 1
    25   11   21 1
@<TRIPOS>MOLECULE
clet2o.xyz	      0.0000000
   15    14     0     0     0
SMALL
NO_CHARGES

@<TRIPOS>ATOM
      1 Cl1         0.0000    0.0000    0.0000 Cl        1 <0>         0.0000
      2 C1          1.7922    0.0000    0.0000 C.3       1 <0>         0.0000
      3 C2          2.3159    1.4220    0.0000 C.3       1 <0>         0.0000
      4 O1          3.7106    1.3319   -0.0000 O.3       1 <0>         0.0000
      5 C3          4.3805    2.5585    0.0001 C.3       1 <0>         0.0000
      6 C4          5.8622    2.2407   -0.0000 C.3       1 <0>         0.0000
      7 Cl2         6.8204    3.7553    0.0002 Cl        1 <0>         0.0000
      8 H1          2.1148   -0.5310   -0.8815 H         1 <0>         0.0000
      9 H2          2.1148   -0.5310    0.8815 H         1 <0>         0.0000
     10 H3          1.9647    1.9529   -0.8815 H         1 <0>         0.0000
     11 H4          1.9647    1.9529    0.8815 H         1 <0>         0.0000
     12 H5          4.1196    3.1393   -0.8813 H         1 <0>         0.0000
     13 H6          4.1197    3.1390    0.8817 H         1 <0>         0.0000
     14 H7          6.1384    1.6844   -0.8817 H         1 <0>         0.0000
     15 H8          6.1385    1.6840    0.8814 H         1 <0>         0.0000
@<TRIPOS>BOND
     1    6   14 1
     2    2    8 1
     3    3   10 1
     4    5   12 1
     5    3    4 1
     6    4    5 1
     7    5    6 1
     8    6    7 1
     9    6   15 1
    10    1    2 1
    11    2    3 1
    12    2    9 1
    13    3   11 1
    14    5   13 1
@<TRIPOS>MOLECULE
dae.xyz	      0.0000000
   20    19     0     0     0
SMALL
NO_CHARGES

@<TRIPOS>ATOM
      1 O1          0.0000    0.0000    0.0000 O.2       1 <0>         0.0000
      2 C1          1.1890    0.0000    0.0000 C.2       1 <0>         0.0000
      3 C2          2.0568    1.2248    0.0000 C.3       1 <0>         0.0000
      4 O2          1.9194   -1.1137    0.0076 O.3       1 <0>         0.0000
      5 C3          1.2655   -2.3543   -0.1613 C.3       1 <0>         0.0000
      6 C4          0.9401   -2.9798    1.1719 C.3       1 <0>         0.0000
      7 O3          2.1834   -3.1876   -0.8146 O.3       1 <0>         0.0000
      8 C5          2.3941   -3.0014   -2.1217 C.2       1 <0>         0.0000
      9 O4          1.8126   -2.1926   -2.7674 O.2       1 <0>         0.0000
     10 C6          3.4416   -3.9421   -2.6426 C.3       1 <0>         0.0000
     11 H1          1.4375    2.1046    0.0914 H         1 <0>         0.0000
     12 H2          2.7669    1.1760    0.8170 H         1 <0>         0.0000
     13 H3          2.6171    1.2608   -0.9276 H         1 <0>         0.0000
     14 H4          0.3944   -2.2090   -0.7762 H         1 <0>         0.0000
     15 H5          1.8445   -3.1028    1.7560 H         1 <0>         0.0000
     16 H6          0.2468   -2.3448    1.7094 H         1 <0>         0.0000
     17 H7          0.4816   -3.9502    1.0206 H         1 <0>         0.0000
     18 H8          3.1539   -4.9653   -2.4309 H         1 <0>         0.0000
     19 H9          4.3807   -3.7507   -2.1360 H         1 <0>         0.0000
     20 H10         3.5575   -3.7981   -3.7065 H         1 <0>         0.0000
@<TRIPOS>BOND
     1   10   20 1
     2    8    9 2
     3   10   18 1
     4   10   19 1
     5    8   10 1
     6    7    8 1
     7    3   13 1
     8    5    7 1
     9    5   14 1
    10    4    5 1
    11    5    6 1
    12    1    2 2
    13    2    3 1
    14    2    4 1
    15    3   11 1
    16    3   12 1
    17    6   17 1
    18    6   16 1
    19    6   15 1
@<TRIPOS>MOLECULE
detet.xyz	      0.0000000
   22    21     0     0     0
SMALL
NO_CHARGES

@<TRIPOS>ATOM
      1 C1          0.0000    0.0000    0.0000 C.3       1 <0>         0.0000
      2 C2          1.5152    0.0000    0.0000 C.3       1 <0>         0.0000
      3 O1          1.9582    1.3345    0.0000 O.3       1 <0>         0.0000
      4 C3          3.3320    1.5211   -0.0656 C.3       1 <0>         0.0000
      5 O2          3.9789    1.0577    1.0782 O.3       1 <0>         0.0000
      6 C4          3.6958    1.6847    2.3065 C.3       1 <0>         0.0000
      7 C5          4.2933    0.8371    3.4121 C.3       1 <0>         0.0000
      8 C6          3.5800    2.9881   -0.3632 C.3       1 <0>         0.0000
      9 H1         -0.3755   -1.0193   -0.0035 H         1 <0>         0.0000
     10 H2         -0.3816    0.5030    0.8821 H         1 <0>         0.0000
     11 H3         -0.3832    0.5120   -0.8760 H         1 <0>         0.0000
     12 H4          1.8966   -0.5087   -0.8846 H         1 <0>         0.0000
     13 H5          1.9001   -0.5207    0.8713 H         1 <0>         0.0000
     14 H6          3.7453    0.9072   -0.8607 H         1 <0>         0.0000
     15 H7          2.6228    1.7842    2.4371 H         1 <0>         0.0000
     16 H8          4.1302    2.6811    2.3264 H         1 <0>         0.0000
     17 H9          3.8536   -0.1545    3.4152 H         1 <0>         0.0000
     18 H10         4.1114    1.2980    4.3790 H         1 <0>         0.0000
     19 H11         5.3644    0.7333    3.2764 H         1 <0>         0.0000
     20 H12         3.0849    3.6252    0.3600 H         1 <0>         0.0000
     21 H13         3.1848    3.2265   -1.3439 H         1 <0>         0.0000
     22 H14         4.6446    3.1957   -0.3529 H         1 <0>         0.0000
@<TRIPOS>BOND
     1    8   21 1
     2    2   12 1
     3    1   11 1
     4    4   14 1
     5    8   22 1
     6    4    8 1
     7    8   20 1
     8    3    4 1
     9    4    5 1
    10    1    9 1
    11    1    2 1
    12    1   10 1
    13    2    3 1
    14    2   13 1
    15    5    6 1
    16    6   16 1
    17    6   15 1
    18    6    7 1
    19    7   19 1
    20    7   17 1
    21    7   18 1
@<TRIPOS>MOLECULE
dioxane.xyz	      0.0000000
   14    14     0     0     0
SMALL
NO_CHARGES

@<TRIPOS>ATOM
      1 O1          0.0000    0.0000    0.0000 O.3       1 <0>         0.0000
      2 C1          1.4033    0.0000    0.0000 C.3       1 <0>         0.0000
      3 C2          1.9284    1.4238    0.0000 C.3       1 <0>         0.0000
      4 O2          1.3940    2.1382   -1.0832 O.3       1 <0>         0.0000
      5 C3         -0.0094    2.1382   -1.0834 C.3       1 <0>         0.0000
      6 C4         -0.5345    0.7145   -1.0832 C.3       1 <0>         0.0000
      7 H1          1.7218   -0.5314    0.8882 H         1 <0>         0.0000
      8 H2          1.7730   -0.5312   -0.8766 H         1 <0>         0.0000
      9 H3          3.0058    1.4404   -0.1078 H         1 <0>         0.0000
     10 H4          1.6629    1.9166    0.9349 H         1 <0>         0.0000
     11 H5         -0.3280    2.6699   -1.9714 H         1 <0>         0.0000
     12 H6         -0.3790    2.6691   -0.2065 H         1 <0>         0.0000
     13 H7         -0.2686    0.2218   -2.0180 H         1 <0>         0.0000
     14 H8         -1.6120    0.6974   -0.9757 H         1 <0>         0.0000
@<TRIPOS>BOND
     1    6   13 1
     2    5   11 1
     3    4    5 1
     4    5    6 1
     5    5   12 1
     6    3    4 1
     7    6   14 1
     8    1    6 1
     9    2    8 1
    10    3    9 1
    11    1    2 1
    12    2    3 1
    13    2    7 1
    14    3   10 1
@<TRIPOS>MOLECULE
dmal.xyz	      0.0000000
   23    22     0     0     0
SMALL
NO_CHARGES

@<TRIPOS>ATOM
      1 C1          0.0000    0.0000    0.0000 C.3       1 <0>         0.0000
      2 C2          1.5125    0.0000    0.0000 C.3       1 <0>         0.0000
      3 O1          1.9419    1.3625    0.0000 O.3       1 <0>         0.0000
      4 C3          3.2394    1.6029   -0.0021 C.2       1 <0>         0.0000
      5 O2          4.0759    0.7588    0.0234 O.2       1 <0>         0.0000
      6 C4          3.5306    3.0866    0.0119 C.3       1 <0>         0.0000
      7 C5          2.7768    3.8649   -1.0434 C.2       1 <0>         0.0000
      8 O3          2.1841    4.8727   -0.8283 O.2       1 <0>         0.0000
      9 O4          2.9046    3.3107   -2.2344 O.3       1 <0>         0.0000
     10 C6          2.2741    3.9302   -3.3589 C.3       1 <0>         0.0000
     11 C7          0.8295    3.4899   -3.4929 C.3       1 <0>         0.0000
     12 H1         -0.3643   -1.0227    0.0018 H         1 <0>         0.0000
     13 H2         -0.3868    0.5035    0.8789 H         1 <0>         0.0000
     14 H3         -0.3873    0.5004   -0.8805 H         1 <0>         0.0000
     15 H4          1.9162   -0.4893   -0.8767 H         1 <0>         0.0000
     16 H5          1.9151   -0.4902    0.8766 H         1 <0>         0.0000
     17 H6          3.2612    3.4909    0.9789 H         1 <0>         0.0000
     18 H7          4.5932    3.2180   -0.1457 H         1 <0>         0.0000
     19 H8          2.8619    3.6066   -4.2060 H         1 <0>         0.0000
     20 H9          2.3533    5.0027   -3.2577 H         1 <0>         0.0000
     21 H10         0.7641    2.4106   -3.5803 H         1 <0>         0.0000
     22 H11         0.3981    3.9315   -4.3864 H         1 <0>         0.0000
     23 H12         0.2447    3.8100   -2.6391 H         1 <0>         0.0000
@<TRIPOS>BOND
     1   11   22 1
     2   10   19 1
     3   11   21 1
     4   10   11 1
     5   11   23 1
     6   10   20 1
     7    9   10 1
     8    7    9 1
     9    7    8 2
    10    6    7 1
    11    1   14 1
    12    2   15 1
    13    6   18 1
    14    3    4 1
    15    4    6 1
    16    4    5 2
    17    1    2 1
    18    1   12 1
    19    1   13 1
    20    2    3 1
    21    2   16 1
    22    6   17 1
@<TRIPOS>MOLECULE
dmetm.xyz	      0.0000000
   13    12     0     0     0
SMALL
NO_CHARGES

@<TRIPOS>ATOM
      1 C1          0.0000    0.0000    0.0000 C.3       1 <0>         0.0000
      2 O1          1.4016    0.0000    0.0000 O.3       1 <0>         0.0000
      3 C2          1.9919    1.2499    0.0000 C.3       1 <0>         0.0000
      4 O2          1.7959    1.9483   -1.1767 O.3       1 <0>         0.0000
      5 C3          2.4437    1.4196   -2.3017 C.3       1 <0>         0.0000
      6 H1         -0.3161   -1.0326    0.0492 H         1 <0>         0.0000
      7 H2         -0.3873    0.5320    0.8667 H         1 <0>         0.0000
      8 H3         -0.3975    0.4567   -0.8998 H         1 <0>         0.0000
      9 H4          1.5778    1.8724    0.7865 H         1 <0>         0.0000
     10 H5          3.0489    1.0784    0.1757 H         1 <0>         0.0000
     11 H6          2.2420    2.0889   -3.1263 H         1 <0>         0.0000
     12 H7          2.0757    0.4283   -2.5429 H         1 <0>         0.0000
     13 H8          3.5187    1.3677   -2.1409 H         1 <0>         0.0000
@<TRIPOS>BOND
     1    5   11 1
     2    5   12 1
     3    5   13 1
     4    4    5 1
     5    3    4 1
     6    1    8 1
     7    1    2 1
     8    1    6 1
     9    1    7 1
    10    2    3 1
    11    3   10 1
    12    3    9 1
@<TRIPOS>MOLECULE
ds.xyz	      0.0000000
   23    22     0     0     0
SMALL
NO_CHARGES

@<TRIPOS>ATOM
      1 C1          0.0000    0.0000    0.0000 C.3       1 <0>         0.0000
      2 O1          1.4190    0.0000    0.0000 O.3       1 <0>         0.0000
      3 C2          2.0277    1.1726    0.0000 C.2       1 <0>         0.0000
      4 C3          3.5290    1.0210    0.0121 C.3       1 <0>         0.0000
      5 C4          4.2489    2.3318   -0.2644 C.3       1 <0>         0.0000
      6 O2          1.4491    2.2140    0.0199 O.2       1 <0>         0.0000
      7 C5          4.0658    2.8038   -1.6868 C.2       1 <0>         0.0000
      8 O3          3.6305    2.1311   -2.5694 O.2       1 <0>         0.0000
      9 O4          4.4849    4.0463   -1.8418 O.3       1 <0>         0.0000
     10 C6          4.3913    4.6506   -3.1330 C.3       1 <0>         0.0000
     11 C7          3.0196    5.2569   -3.3582 C.3       1 <0>         0.0000
     12 H1         -0.2915   -1.0388   -0.0075 H         1 <0>         0.0000
     13 H2         -0.3777    0.4922    0.8854 H         1 <0>         0.0000
     14 H3         -0.3748    0.5040   -0.8796 H         1 <0>         0.0000
     15 H4          3.8017    0.6454    0.9946 H         1 <0>         0.0000
     16 H5          3.8020    0.2593   -0.7063 H         1 <0>         0.0000
     17 H6          5.3170    2.2110   -0.1055 H         1 <0>         0.0000
     18 H7          3.9154    3.1158    0.4026 H         1 <0>         0.0000
     19 H8          4.6253    3.9122   -3.8862 H         1 <0>         0.0000
     20 H9          5.1587    5.4120   -3.1294 H         1 <0>         0.0000
     21 H10         2.2524    4.4924   -3.3544 H         1 <0>         0.0000
     22 H11         2.9983    5.7590   -4.3212 H         1 <0>         0.0000
     23 H12         2.7915    5.9852   -2.5874 H         1 <0>         0.0000
@<TRIPOS>BOND
     1   11   22 1
     2   10   19 1
     3   11   21 1
     4   10   11 1
     5   11   23 1
     6   10   20 1
     7    9   10 1
     8    7    8 2
     9    7    9 1
    10    5    7 1
    11    1   14 1
    12    4   16 1
    13    5   17 1
    14    4    5 1
    15    5   18 1
    16    1   12 1
    17    1    2 1
    18    1   13 1
    19    2    3 1
    20    3    4 1
    21    3    6 2
    22    4   15 1
@<TRIPOS>MOLECULE
etgd.xyz	      0.0000000
   20    19     0     0     0
SMALL
NO_CHARGES

@<TRIPOS>ATOM
      1 C1          0.0000    0.0000    0.0000 C.3       1 <0>         0.0000
      2 C2          1.5005    0.0000    0.0000 C.2       1 <0>         0.0000
      3 O1          1.9841    1.2367    0.0000 O.3       1 <0>         0.0000
      4 C3          3.3847    1.4490   -0.0738 C.3       1 <0>         0.0000
      5 C4          3.8652    1.6533   -1.4970 C.3       1 <0>         0.0000
      6 O2          4.0579    0.4277   -2.1851 O.3       1 <0>         0.0000
      7 C5          3.0803   -0.0743   -2.9305 C.2       1 <0>         0.0000
      8 O3          2.0370    0.4738   -3.1047 O.2       1 <0>         0.0000
      9 O4          2.1852   -0.9748   -0.0080 O.2       1 <0>         0.0000
     10 C6          3.4592   -1.4092   -3.5017 C.3       1 <0>         0.0000
     11 H1         -0.3409    0.3739   -0.9590 H         1 <0>         0.0000
     12 H2         -0.3762    0.6595    0.7725 H         1 <0>         0.0000
     13 H3         -0.3614   -1.0065    0.1508 H         1 <0>         0.0000
     14 H4          3.9117    0.6314    0.3961 H         1 <0>         0.0000
     15 H5          3.5585    2.3614    0.4818 H         1 <0>         0.0000
     16 H6          3.1831    2.2862   -2.0456 H         1 <0>         0.0000
     17 H7          4.8443    2.1135   -1.4665 H         1 <0>         0.0000
     18 H8          4.4346   -1.3547   -3.9692 H         1 <0>         0.0000
     19 H9          3.5135   -2.1251   -2.6891 H         1 <0>         0.0000
     20 H10         2.7123   -1.7214   -4.2165 H         1 <0>         0.0000
@<TRIPOS>BOND
     1   10   20 1
     2   10   18 1
     3    7   10 1
     4   10   19 1
     5    7    8 2
     6    6    7 1
     7    5    6 1
     8    5   16 1
     9    5   17 1
    10    4    5 1
    11    1   11 1
    12    3    4 1
    13    4   14 1
    14    4   15 1
    15    2    9 2
    16    1    2 1
    17    1   13 1
    18    1   12 1
    19    2    3 1
@<TRIPOS>MOLECULE
eto2et.xyz	      0.0000000
   22    21     0     0     0
SMALL
NO_CHARGES

@<TRIPOS>ATOM
      1 C1          0.0000    0.0000    0.0000 C.3       1 <0>         0.0000
      2 C2          1.5151    0.0000    0.0000 C.3       1 <0>         0.0000
      3 O1          1.9660    1.3242    0.0000 O.3       1 <0>         0.0000
      4 C3          3.3535    1.4720   -0.0000 C.3       1 <0>         0.0000
      5 C4          3.6607    2.9544   -0.0000 C.3       1 <0>         0.0000
      6 O2          5.0482    3.1019   -0.0000 O.3       1 <0>         0.0000
      7 C5          5.4995    4.4261    0.0000 C.3       1 <0>         0.0000
      8 C6          7.0145    4.4260   -0.0000 C.3       1 <0>         0.0000
      9 H1         -0.3767   -1.0188   -0.0000 H         1 <0>         0.0000
     10 H2         -0.3803    0.5084    0.8793 H         1 <0>         0.0000
     11 H3         -0.3803    0.5084   -0.8793 H         1 <0>         0.0000
     12 H4          1.8959   -0.5199   -0.8793 H         1 <0>         0.0000
     13 H5          1.8959   -0.5200    0.8792 H         1 <0>         0.0000
     14 H6          3.7926    1.0060   -0.8807 H         1 <0>         0.0000
     15 H7          3.7926    1.0060    0.8806 H         1 <0>         0.0000
     16 H8          3.2216    3.4204   -0.8807 H         1 <0>         0.0000
     17 H9          3.2216    3.4204    0.8807 H         1 <0>         0.0000
     18 H10         5.1185    4.9460   -0.8792 H         1 <0>         0.0000
     19 H11         5.1185    4.9460    0.8793 H         1 <0>         0.0000
     20 H12         7.3948    3.9176   -0.8794 H         1 <0>         0.0000
     21 H13         7.3912    5.4447    0.0000 H         1 <0>         0.0000
     22 H14         7.3948    3.9175    0.8793 H         1 <0>         0.0000
@<TRIPOS>BOND
     1    4   14 1
     2    5   16 1
     3    8   20 1
     4    1   11 1
     5    2   12 1
     6    7   18 1
     7    4    5 1
     8    3    4 1
     9    4   15 1
    10    5    6 1
    11    6    7 1
    12    5   17 1
    13    7    8 1
    14    8   21 1
    15    8   22 1
    16    1    9 1
    17    1    2 1
    18    1   10 1
    19    2    3 1
    20    2   13 1
    21    7   19 1
@<TRIPOS>MOLECULE
etset.xyz	      0.0000000
   15    14     0     0     0
SMALL
NO_CHARGES

@<TRIPOS>ATOM
      1 C1          0.0000    0.0000    0.0000 C.3       1 <0>         0.0000
      2 C2          1.5255    0.0000    0.0000 C.3       1 <0>         0.0000
      3 S1          2.1636    1.7013    0.0000 S.3       1 <0>         0.0000
      4 C3          3.9522    1.3814    0.0004 C.3       1 <0>         0.0000
      5 C4          4.7308    2.6933   -0.0035 C.3       1 <0>         0.0000
      6 H1         -0.3704   -1.0205   -0.0000 H         1 <0>         0.0000
      7 H2         -0.3919    0.5010    0.8788 H         1 <0>         0.0000
      8 H3         -0.3919    0.5010   -0.8788 H         1 <0>         0.0000
      9 H4          1.9001   -0.5156   -0.8777 H         1 <0>         0.0000
     10 H5          1.9001   -0.5156    0.8777 H         1 <0>         0.0000
     11 H6          4.2041    0.7936   -0.8756 H         1 <0>         0.0000
     12 H7          4.2046    0.7986    0.8797 H         1 <0>         0.0000
     13 H8          4.4998    3.2835   -0.8839 H         1 <0>         0.0000
     14 H9          5.7974    2.4910   -0.0031 H         1 <0>         0.0000
     15 H10         4.5001    3.2885    0.8737 H         1 <0>         0.0000
@<TRIPOS>BOND
     1    5   13 1
     2    1    8 1
     3    2    9 1
     4    4   11 1
     5    5   14 1
     6    4    5 1
     7    5   15 1
     8    1    6 1
     9    1    2 1
    10    1    7 1
    11    2    3 1
    12    2   10 1
    13    3    4 1
    14    4   12 1
@<TRIPOS>MOLECULE
hcooph.xyz	      0.0000000
   15    15     0     0     0
SMALL
NO_CHARGES

@<TRIPOS>ATOM
      1 C1          0.0000    0.0000    0.0000 C.ar      1 <0>         0.0000
      2 C2          1.3804    0.0000    0.0000 C.ar      1 <0>         0.0000
      3 C3          2.0521    1.2134    0.0000 C.ar      1 <0>         0.0000
      4 C4          1.3432    2.4058   -0.0046 C.ar      1 <0>         0.0000
      5 C5         -0.0438    2.3836   -0.0101 C.ar      1 <0>         0.0000
      6 C6         -0.7243    1.1753   -0.0101 C.ar      1 <0>         0.0000
      7 O1         -0.6751   -1.2097   -0.0613 O.3       1 <0>         0.0000
      8 C7         -1.0256   -1.8272    1.0634 C.2       1 <0>         0.0000
      9 O2         -0.8189   -1.4471    2.1611 O.2       1 <0>         0.0000
     10 H1          1.9152   -0.9320    0.0007 H         1 <0>         0.0000
     11 H2          3.1272    1.2247    0.0023 H         1 <0>         0.0000
     12 H3          1.8673    3.3444   -0.0051 H         1 <0>         0.0000
     13 H4         -0.5983    3.3048   -0.0156 H         1 <0>         0.0000
     14 H5         -1.7982    1.1415   -0.0172 H         1 <0>         0.0000
     15 H6         -1.5395   -2.7499    0.8177 H         1 <0>         0.0000
@<TRIPOS>BOND
     1    1    7 1
     2    7    8 1
     3    6   14 1
     4    5   13 1
     5    5    6 ar
     6    1    6 ar
     7    4    5 ar
     8    4   12 1
     9    3    4 ar
    10    1    2 ar
    11    2    3 ar
    12    2   10 1
    13    3   11 1
    14    8   15 1
    15    8    9 2
@<TRIPOS>MOLECULE
imidaz.xyz	      0.0000000
    9     9     0     0     0
SMALL
NO_CHARGES

@<TRIPOS>ATOM
      1 C1          0.0000    0.0000    0.0000 C.2       1 <0>         0.0000
      2 N1          1.3722    0.0000    0.0000 N.pl3     1 <0>         0.0000
      3 C2          1.7637    1.2923    0.0000 C.2       1 <0>         0.0000
      4 N2          0.7602    2.1038    0.0001 N.2       1 <0>         0.0000
      5 C3         -0.3552    1.3056    0.0000 C.2       1 <0>         0.0000
      6 H1          1.9664   -0.7950   -0.0002 H         1 <0>         0.0000
      7 H2         -0.5757   -0.9003   -0.0000 H         1 <0>         0.0000
      8 H3          2.7957    1.5781   -0.0000 H         1 <0>         0.0000
      9 H4         -1.3406    1.7216    0.0000 H         1 <0>         0.0000
@<TRIPOS>BOND
     1    1    2 1
     2    1    5 2
     3    1    7 1
     4    2    3 1
     5    2    6 1
     6    3    4 2
     7    3    8 1
     8    4    5 1
     9    5    9 1
